<?xml version="1.0" encoding="utf-8"?>
<!DOCTYPE network SYSTEM "http://www.matsim.org/files/dtd/network_v2.dtd">

<network>
<nodes>
<node x="0.0" y="0.0" id="1" />
<node x="0.0" y="-500.0" id="2" />
<node x="500.0" y="0.0" id="3" />
<node x="5000.0" y="500.0" id="4" />
<node x="5000.0" y="1000.0" id="5" />
<node x="1500.0" y="3000.0" id="6" />
<node x="500.0" y="3500.0" id="7" />
<node x="6000.0" y="0.0" id="8" />
<node x="7500.0" y="0.0" id="9" />
<node x="6000.0" y="1500.0" id="10" />
<node x="6000.0" y="2500.0" id="11" />
<node x="7000.0" y="2500.0" id="12" />
<node x="7000.0" y="3500.0" id="13" />
<node x="8000.0" y="4500.0" id="14" />
</nodes>

<links capperiod="10:00:00">
<link id="1-3" modes="car,bus,cycle" permlanes="1" capacity="1000" freespeed="10" length="500" to="3" from="1"/>
<link id="3-1" modes="car,bus,cycle" permlanes="1" capacity="1000" freespeed="10" length="500" to="1" from="3"/>
<link id="2-3" modes="car,bus,cycle" permlanes="1" capacity="1000" freespeed="10" length="700" to="3" from="2"/>
<link id="3-2" modes="car,bus,cycle" permlanes="1" capacity="1000" freespeed="10" length="700" to="2" from="3"/>
<link id="3-4" modes="car,bus,cycle" permlanes="1" capacity="1000" freespeed="10" length="5000" to="4" from="3"/>
<link id="4-3" modes="car,bus,cycle" permlanes="1" capacity="1000" freespeed="10" length="5000" to="3" from="4"/>

<link id="4-5" modes="car,bus,cycle" permlanes="1" capacity="1000" freespeed="10" length="500" to="5" from="4"/>
<link id="5-4" modes="car,bus,cycle" permlanes="1" capacity="1000" freespeed="10" length="500" to="4" from="5"/>
<link id="5-6" modes="car,bus,cycle" permlanes="1" capacity="1000" freespeed="10" length="4000" to="6" from="5"/>
<link id="6-5" modes="car,bus,cycle" permlanes="1" capacity="1000" freespeed="10" length="4000" to="5" from="6"/>
<link id="6-7" modes="car,bus,cycle" permlanes="1" capacity="1000" freespeed="10" length="700" to="7" from="6"/>
<link id="7-6" modes="car,bus,cycle" permlanes="1" capacity="1000" freespeed="10" length="700" to="6" from="7"/>

<link id="4-8" modes="car,bus,cycle" permlanes="1" capacity="1000" freespeed="10" length="1200" to="8" from="4"/>
<link id="8-4" modes="car,bus,cycle" permlanes="1" capacity="1000" freespeed="10" length="1200" to="4" from="8"/>
<link id="8-9" modes="car,bus,cycle" permlanes="1" capacity="1000" freespeed="10" length="1500" to="9" from="8"/>
<link id="9-8" modes="car,bus,cycle" permlanes="1" capacity="1000" freespeed="10" length="1500" to="8" from="9"/>

<link id="5-10" modes="car,bus,cycle" permlanes="1" capacity="1000" freespeed="10" length="800" to="10" from="5"/>
<link id="10-5" modes="car,bus,cycle" permlanes="1" capacity="1000" freespeed="10" length="800" to="5" from="10"/>
<link id="10-11" modes="car,bus,cycle" permlanes="1" capacity="1000" freespeed="10" length="1000" to="11" from="10"/>
<link id="11-10" modes="car,bus,cycle" permlanes="1" capacity="1000" freespeed="10" length="1000" to="10" from="11"/>
<link id="11-12" modes="car,bus,cycle" permlanes="1" capacity="1000" freespeed="10" length="1000" to="12" from="11"/>
<link id="12-11" modes="car,bus,cycle" permlanes="1" capacity="1000" freespeed="10" length="1000" to="11" from="12"/>
<link id="12-13" modes="car,bus,cycle" permlanes="1" capacity="1000" freespeed="10" length="1000" to="13" from="12"/>
<link id="13-12" modes="car,bus,cycle" permlanes="1" capacity="1000" freespeed="10" length="1000" to="12" from="13"/>
<link id="13-14" modes="car,bus,cycle" permlanes="1" capacity="1000" freespeed="10" length="1000" to="14" from="13"/>
<link id="14-13" modes="car,bus,cycle" permlanes="1" capacity="1000" freespeed="10" length="1000" to="13" from="14"/>
</links>
</network>
