<?xml version="1.0" encoding="UTF-8"?>
<!DOCTYPE population SYSTEM "http://www.matsim.org/files/dtd/population_v5.dtd">

<population>
   <person id="chris">
      <plan>
         <act end_time="07:25:00" y="-200" x="-500" link="1-3" type="home"/>
         <leg mode="car"/>
         <act end_time="16:30:00" y="800" x="4600" link="4-5" type="work"/>
         <leg mode="car"/>
         <act y="-200" x="-500" link="1-3" type="home"/>
      </plan>
   </person>
  <person id="fatema">
      <plan>
         <act end_time="08:10:00" y="-500" x="8000" link="9-8" type="home"/>
         <leg mode="cycle"/>
         <act end_time="17:30:00" y="100" x="4600" link="4-5" type="work"/>
         <leg mode="cycle"/>
         <act y="-500" x="8000" link="9-8" type="home"/>
      </plan>
   </person>
  <person id="gerry">
      <plan>
         <act end_time="07:20:00" y="-400" x="600" link="1-3" type="home"/>
         <leg mode="pt"/>
         <act end_time="16:30:00" y="500" x="5400" link="4-5" type="work"/>
         <leg mode="pt"/>
         <act y="-400" x="600" link="1-3" type="home"/>
      </plan>
   </person>
  <person id="fred">
      <plan>
         <act end_time="08:20:00" y="300" x="300" link="1-3" type="home"/>
         <leg mode="pt"/>
         <act end_time="17:30:00" y="600" x="6000" link="4-5" type="work"/>
         <leg mode="pt"/>
         <act y="300" x="300" link="1-3" type="home"/>
      </plan>
   </person>
     <person id="nick">
      <plan>
         <act end_time="07:40:00" y="3500" x="1000" link="7-6" type="home"/>
         <leg mode="car"/>
         <act end_time="17:30:00" y="500" x="4600" link="5-10" type="work"/>
         <leg mode="car"/>
         <act y="3500" x="1000" link="7-6" type="home"/>
      </plan>
   </person>
   <person id="alex">
      <plan>
         <act end_time="08:20:00" y="300" x="7500" link="9-8" type="home"/>
         <leg mode="walk"/>
         <act end_time="17:30:00" y="500" x="4600" link="5-10" type="work"/>
         <leg mode="walk"/>
         <act y="300" x="7500" link="9-8" type="home"/>
      </plan>
   </person>
   <person id="rory">
      <plan>
         <act end_time="08:20:00" y="4200" x="7200" link="14-13" type="home"/>
         <leg mode="cycle"/>
         <act end_time="16:30:00" y="500" x="4600" link="4-5" type="work"/>
         <leg mode="cycle"/>
         <act y="4200" x="7200" link="14-13" type="home"/>
      </plan>
   </person>
   <person id="johan">
      <plan>
         <act end_time="07:55:00" y="4000" x="7900" link="14-13" type="home"/>
         <leg mode="car"/>
         <act end_time="16:30:00" y="1500" x="4600" link="4-5" type="work"/>
         <leg mode="car"/>
         <act y="4000" x="7900" link="14-13" type="home"/>
      </plan>
   </person>
   <person id="kasia">
      <plan>
         <act end_time="08:00:00" y="3000" x="4800" type="home"/>
         <leg mode="walk"/>
         <act end_time="16:30:00" y="-50" x="4000" link="5-4" type="work"/>
         <leg mode="walk"/>
         <act y="3000" x="4800" type="home"/>
      </plan>
   </person>
   <person id="delivery">
      <plan>
         <act end_time="07:25:00" y="3000" x="500" link="7-6" type="depo"/>
         <leg mode="car"/>
         <act end_time="07:35:00" y="4500" x="8000" link="13-14" type="dropoff_1"/>
         <leg mode="car"/>
         <act end_time="07:55:00" y="0" x="7500" link="8-9" type="dropoff_2"/>
         <leg mode="car"/>
         <act end_time="08:15:00" y="3000" x="500" link="7-6" type="dropoff_3"/>
         <leg mode="car"/>
         <act end_time="08:25:00" y="4500" x="8000" link="13-14" type="dropoff_1"/>
         <leg mode="car"/>
         <act end_time="08:45:00" y="0" x="7500" link="8-9" type="dropoff_2"/>
         <leg mode="car"/>
         <act y="3000" x="500" link="7-6" type="depo"/>
      </plan>
   </person>
 </population>
